*HEADING
Modelo de Casca Gerado Automaticamente
Sistema de Unidades: SI (m, kg, s)
*NODE, NSET=ALLNODES
1, 0.707107, 0.000000, 0.707107
2, 0.714178, 0.000000, 0.714178
3, 0.721249, 0.000000, 0.721249
4, 0.728320, 0.000000, 0.728320
5, 0.735391, 0.000000, 0.735391
6, 0.742462, 0.000000, 0.742462
7, 0.749533, 0.000000, 0.749533
8, 0.756604, 0.000000, 0.756604
9, 0.763675, 0.000000, 0.763675
10, 0.770746, 0.000000, 0.770746
11, 0.777817, 0.000000, 0.777817
12, 0.784889, 0.000000, 0.784889
13, 0.791960, 0.000000, 0.791960
14, 0.799031, 0.000000, 0.799031
15, 0.806102, 0.000000, 0.806102
16, 0.813173, 0.000000, 0.813173
17, 0.820244, 0.000000, 0.820244
18, 0.827315, 0.000000, 0.827315
19, 0.834386, 0.000000, 0.834386
20, 0.841457, 0.000000, 0.841457
** ... 10080 like lines cut
*NSET, NSET=X0, GENERATE
1 , 10000, 101
*NSET, NSET=X1, GENERATE
101 , 10100, 101
*NSET, NSET=Y0, GENERATE
1 , 101, 1
*NSET, NSET=Y1, GENERATE
10000 , 10100, 1
*ELEMENT, TYPE=S4R, ELSET=ALLELEMENTS
1, 1, 2, 103, 102
2, 2, 3, 104, 103
3, 3, 4, 105, 104
4, 4, 5, 106, 105
5, 5, 6, 107, 106
6, 6, 7, 108, 107
7, 7, 8, 109, 108
8, 8, 9, 110, 109
9, 9, 10, 111, 110
10, 10, 11, 112, 111
11, 11, 12, 113, 112
12, 12, 13, 114, 113
13, 13, 14, 115, 114
14, 14, 15, 116, 115
15, 15, 16, 117, 116
16, 16, 17, 118, 117
17, 17, 18, 119, 118
18, 18, 19, 120, 119
19, 19, 20, 121, 120
20, 20, 21, 122, 121
** ... 9980 like lines cut
*MATERIAL, NAME=MATERIAL_ELASTICO
*ELASTIC
70000000000.0, 0.3
*DENSITY
2710
*SHELL SECTION, ELSET=ALLELEMENTS, MATERIAL=MATERIAL_ELASTICO
0.014142135623730952
*BOUNDARY, TYPE=DISPLACEMENT
X0, 1, 1
*BOUNDARY, TYPE=DISPLACEMENT
X1, 1, 1
*BOUNDARY, TYPE=DISPLACEMENT
X0, 2, 2
*BOUNDARY, TYPE=DISPLACEMENT
X1, 2, 2
*BOUNDARY, TYPE=DISPLACEMENT
X0, 3, 3
*BOUNDARY, TYPE=DISPLACEMENT
X0, 4, 6
*BOUNDARY, TYPE=DISPLACEMENT
X1, 3, 3
*BOUNDARY, TYPE=DISPLACEMENT
X1, 4, 6
*STEP
*FREQUENCY
10, 100, 100000
*END STEP
