*HEADING
Modelo de Casca Gerado Automaticamente
Sistema de Unidades: SI (m, kg, s)
*NODE, NSET=ALLNODES
1, 0.200000, 0.000000, 0.346410, 0.500000, 0.000000, 0.866025, 0.000000, 5.000000, 0.000000, -0.866025, 0.000000, 0.500000
2, 0.202000, 0.000000, 0.349874, 0.500000, 0.000000, 0.866025, 0.000000, 4.950495, 0.000000, -0.866025, 0.000000, 0.500000
3, 0.204000, 0.000000, 0.353338, 0.500000, 0.000000, 0.866025, 0.000000, 4.901961, 0.000000, -0.866025, 0.000000, 0.500000
4, 0.206000, 0.000000, 0.356802, 0.500000, 0.000000, 0.866025, 0.000000, 4.854369, 0.000000, -0.866025, 0.000000, 0.500000
5, 0.208000, 0.000000, 0.360267, 0.500000, 0.000000, 0.866025, 0.000000, 4.807692, 0.000000, -0.866025, 0.000000, 0.500000
6, 0.210000, 0.000000, 0.363731, 0.500000, 0.000000, 0.866025, 0.000000, 4.761905, 0.000000, -0.866025, 0.000000, 0.500000
7, 0.212000, 0.000000, 0.367195, 0.500000, 0.000000, 0.866025, 0.000000, 4.716981, 0.000000, -0.866025, 0.000000, 0.500000
8, 0.214000, 0.000000, 0.370659, 0.500000, 0.000000, 0.866025, 0.000000, 4.672897, 0.000000, -0.866025, 0.000000, 0.500000
9, 0.216000, 0.000000, 0.374123, 0.500000, 0.000000, 0.866025, 0.000000, 4.629630, 0.000000, -0.866025, 0.000000, 0.500000
10, 0.218000, 0.000000, 0.377587, 0.500000, 0.000000, 0.866025, 0.000000, 4.587156, 0.000000, -0.866025, 0.000000, 0.500000
11, 0.220000, 0.000000, 0.381051, 0.500000, 0.000000, 0.866025, 0.000000, 4.545455, 0.000000, -0.866025, 0.000000, 0.500000
12, 0.222000, 0.000000, 0.384515, 0.500000, 0.000000, 0.866025, 0.000000, 4.504505, 0.000000, -0.866025, 0.000000, 0.500000
13, 0.224000, 0.000000, 0.387979, 0.500000, 0.000000, 0.866025, 0.000000, 4.464286, 0.000000, -0.866025, 0.000000, 0.500000
14, 0.226000, 0.000000, 0.391443, 0.500000, 0.000000, 0.866025, 0.000000, 4.424779, 0.000000, -0.866025, 0.000000, 0.500000
15, 0.228000, 0.000000, 0.394908, 0.500000, 0.000000, 0.866025, 0.000000, 4.385965, 0.000000, -0.866025, 0.000000, 0.500000
16, 0.230000, 0.000000, 0.398372, 0.500000, 0.000000, 0.866025, 0.000000, 4.347826, 0.000000, -0.866025, 0.000000, 0.500000
17, 0.232000, 0.000000, 0.401836, 0.500000, 0.000000, 0.866025, 0.000000, 4.310345, 0.000000, -0.866025, 0.000000, 0.500000
18, 0.234000, 0.000000, 0.405300, 0.500000, 0.000000, 0.866025, 0.000000, 4.273504, 0.000000, -0.866025, 0.000000, 0.500000
19, 0.236000, 0.000000, 0.408764, 0.500000, 0.000000, 0.866025, 0.000000, 4.237288, 0.000000, -0.866025, 0.000000, 0.500000
20, 0.238000, 0.000000, 0.412228, 0.500000, 0.000000, 0.866025, 0.000000, 4.201681, 0.000000, -0.866025, 0.000000, 0.500000
** ... 20180 like lines cut
*NSET, NSET=X0, GENERATE
1 , 20100, 101
*NSET, NSET=X1, GENERATE
101 , 20200, 101
*NSET, NSET=Y0, GENERATE
1 , 101, 1
*NSET, NSET=Y1, GENERATE
20100 , 20200, 1
*ELEMENT, TYPE=S4R, ELSET=ALLELEMENTS
1, 1, 2, 103, 102
2, 2, 3, 104, 103
3, 3, 4, 105, 104
4, 4, 5, 106, 105
5, 5, 6, 107, 106
6, 6, 7, 108, 107
7, 7, 8, 109, 108
8, 8, 9, 110, 109
9, 9, 10, 111, 110
10, 10, 11, 112, 111
11, 11, 12, 113, 112
12, 12, 13, 114, 113
13, 13, 14, 115, 114
14, 14, 15, 116, 115
15, 15, 16, 117, 116
16, 16, 17, 118, 117
17, 17, 18, 119, 118
18, 18, 19, 120, 119
19, 19, 20, 121, 120
20, 20, 21, 122, 121
** ... 19980 like lines cut
*MATERIAL, NAME=MATERIAL_ELASTICO
*ELASTIC
70000000000.0, 0.3
*DENSITY
2710
*NODAL THICKNESS
1, 0.002
2, 0.002
3, 0.002
4, 0.002
5, 0.002
6, 0.002
7, 0.002
8, 0.002
9, 0.002
10, 0.002
11, 0.002
12, 0.002
13, 0.002
14, 0.002
15, 0.002
16, 0.002
17, 0.002
18, 0.002
19, 0.002
20, 0.002
** ... 20180 like lines cut
*SHELL SECTION, ELSET=ALLELEMENTS, MATERIAL=MATERIAL_ELASTICO, NODAL THICKNESS
1, 3
*BOUNDARY, TYPE=DISPLACEMENT
X0, 1, 1
*BOUNDARY, TYPE=DISPLACEMENT
X1, 1, 1
*BOUNDARY, TYPE=DISPLACEMENT
X0, 2, 2
*BOUNDARY, TYPE=DISPLACEMENT
X1, 2, 2
*BOUNDARY, TYPE=DISPLACEMENT
X0, 3, 3
*BOUNDARY, TYPE=DISPLACEMENT
X0, 4, 6
*BOUNDARY, TYPE=DISPLACEMENT
X1, 3, 3
*BOUNDARY, TYPE=DISPLACEMENT
X1, 4, 6
*STEP
*FREQUENCY
40, 100, 100000
*END STEP
