*HEADING
Modelo de Casca Gerado Automaticamente
Sistema de Unidades: SI (m, kg, s)
*NODE, NSET=ALLNODES
1, 0.000000, 0.000000, 0.000000, 
2, 0.250000, 0.000000, -0.093750, 
3, 0.500000, 0.000000, -0.125000, 
4, 0.750000, 0.000000, -0.093750, 
5, 1.000000, 0.000000, 0.000000, 
6, 0.000000, 0.250000, 0.093750, 
7, 0.500000, 0.250000, -0.031250, 
8, 1.000000, 0.250000, 0.093750, 
9, 0.000000, 0.500000, 0.125000, 
10, 0.250000, 0.500000, 0.031250, 
11, 0.500000, 0.500000, 0.000000, 
12, 0.750000, 0.500000, 0.031250, 
13, 1.000000, 0.500000, 0.125000, 
14, 0.000000, 0.750000, 0.093750, 
15, 0.500000, 0.750000, -0.031250, 
16, 1.000000, 0.750000, 0.093750, 
17, 0.000000, 1.000000, 0.000000, 
18, 0.250000, 1.000000, -0.093750, 
19, 0.500000, 1.000000, -0.125000, 
20, 0.750000, 1.000000, -0.093750, 
21, 1.000000, 1.000000, 0.000000, 
*NSET, NSET=X0
1, 6, 9, 14, 17, 
*NSET, NSET=X1
5, 8, 13, 16, 21, 
*NSET, NSET=Y0
1, 2, 3, 4, 5, 
*NSET, NSET=Y1
17, 18, 19, 20, 21, 
*ELEMENT, TYPE=S*R, ELSET=ALLELEMENTS
1, 1, 3, 11, 9, 2, 7, 10, 6
2, 3, 5, 13, 11, 4, 8, 12, 7
3, 9, 11, 19, 17, 10, 15, 18, 14
4, 11, 13, 21, 19, 12, 16, 20, 15
*MATERIAL, NAME=MATERIAL_ELASTICO_0
*ELASTIC
380000000000.0, 0.3
*DENSITY
3800.0
*MATERIAL, NAME=MATERIAL_ELASTICO_1
*ELASTIC
380000000000.0, 0.3
*DENSITY
3800.0
*MATERIAL, NAME=MATERIAL_ELASTICO_2
*ELASTIC
380000000000.0, 0.3
*DENSITY
3800.0
*MATERIAL, NAME=MATERIAL_ELASTICO_3
*ELASTIC
380000000000.0, 0.3
*DENSITY
3800.0
*MATERIAL, NAME=MATERIAL_ELASTICO_4
*ELASTIC
380000000000.0, 0.3
*DENSITY
3800.0
*MATERIAL, NAME=MATERIAL_ELASTICO_5
*ELASTIC
380000000000.0, 0.3
*DENSITY
3800.0
*MATERIAL, NAME=MATERIAL_ELASTICO_6
*ELASTIC
380000000000.0, 0.3
*DENSITY
3800.0
*MATERIAL, NAME=MATERIAL_ELASTICO_7
*ELASTIC
380000000000.0, 0.3
*DENSITY
3800.0
*MATERIAL, NAME=MATERIAL_ELASTICO_8
*ELASTIC
380000000000.0, 0.3
*DENSITY
3800.0
*MATERIAL, NAME=MATERIAL_ELASTICO_9
*ELASTIC
380000000000.0, 0.3
*DENSITY
3800.0
*MATERIAL, NAME=MATERIAL_ELASTICO_10
*ELASTIC
380000000000.0, 0.3
*DENSITY
3800.0
*MATERIAL, NAME=MATERIAL_ELASTICO_11
*ELASTIC
380000000000.0, 0.3
*DENSITY
3800.0
*MATERIAL, NAME=MATERIAL_ELASTICO_12
*ELASTIC
380000000000.0, 0.3
*DENSITY
3800.0
*MATERIAL, NAME=MATERIAL_ELASTICO_13
*ELASTIC
380000000000.0, 0.3
*DENSITY
3800.0
*MATERIAL, NAME=MATERIAL_ELASTICO_14
*ELASTIC
380000000000.0, 0.3
*DENSITY
3800.0
*MATERIAL, NAME=MATERIAL_ELASTICO_15
*ELASTIC
380000000000.0, 0.3
*DENSITY
3800.0
*MATERIAL, NAME=MATERIAL_ELASTICO_16
*ELASTIC
380000000000.0, 0.3
*DENSITY
3800.0
*MATERIAL, NAME=MATERIAL_ELASTICO_17
*ELASTIC
380000000000.0, 0.3
*DENSITY
3800.0
*MATERIAL, NAME=MATERIAL_ELASTICO_18
*ELASTIC
380000000000.0, 0.3
*DENSITY
3800.0
*MATERIAL, NAME=MATERIAL_ELASTICO_19
*ELASTIC
380000000000.0, 0.3
*DENSITY
3800.0
*SHELL SECTION, ELSET=ALLELEMENTS, COMPOSITE
0.005, 3, MATERIAL_ELASTICO_0, 0
0.005, 3, MATERIAL_ELASTICO_1, 0
0.005, 3, MATERIAL_ELASTICO_2, 0
0.005, 3, MATERIAL_ELASTICO_3, 0
0.005, 3, MATERIAL_ELASTICO_4, 0
0.005, 3, MATERIAL_ELASTICO_5, 0
0.005, 3, MATERIAL_ELASTICO_6, 0
0.005, 3, MATERIAL_ELASTICO_7, 0
0.005, 3, MATERIAL_ELASTICO_8, 0
0.005, 3, MATERIAL_ELASTICO_9, 0
0.005, 3, MATERIAL_ELASTICO_10, 0
0.005, 3, MATERIAL_ELASTICO_11, 0
0.005, 3, MATERIAL_ELASTICO_12, 0
0.005, 3, MATERIAL_ELASTICO_13, 0
0.005, 3, MATERIAL_ELASTICO_14, 0
0.005, 3, MATERIAL_ELASTICO_15, 0
0.005, 3, MATERIAL_ELASTICO_16, 0
0.005, 3, MATERIAL_ELASTICO_17, 0
0.005, 3, MATERIAL_ELASTICO_18, 0
0.005, 3, MATERIAL_ELASTICO_19, 0
*NSET, NSET=NB_0_0
1
*NSET, NSET=NB_0_1
6
*NSET, NSET=NB_0_2
9
*NSET, NSET=NB_0_3
14
*NSET, NSET=NB_0_4
17
*NSET, NSET=NB_1_0
2
*NSET, NSET=NB_1_1
-1
*NSET, NSET=NB_1_2
10
*NSET, NSET=NB_1_3
-1
*NSET, NSET=NB_1_4
18
*NSET, NSET=NB_2_0
3
*NSET, NSET=NB_2_1
7
*NSET, NSET=NB_2_2
11
*NSET, NSET=NB_2_3
15
*NSET, NSET=NB_2_4
19
*NSET, NSET=NB_3_0
4
*NSET, NSET=NB_3_1
-1
*NSET, NSET=NB_3_2
12
*NSET, NSET=NB_3_3
-1
*NSET, NSET=NB_3_4
20
** ... 10 like lines cut
*TRANSFORM, NSET=NB_0_0, TYPE=R
0.8333333333333335, 0.16666666666666669, -0.33333333333333337, 0.0, 1.0, 0.5
*TRANSFORM, NSET=NB_0_1, TYPE=R
0.8095238095238096, 0.09523809523809523, -0.38095238095238093, 0.0, 1.0, 0.25
*TRANSFORM, NSET=NB_0_2, TYPE=R
0.7999999999999999, 0.0, -0.3999999999999999, 0.0, 1.0, 0.0
*TRANSFORM, NSET=NB_0_3, TYPE=R
0.8095238095238096, -0.09523809523809523, -0.38095238095238093, 0.0, 1.0, -0.25
*TRANSFORM, NSET=NB_0_4, TYPE=R
0.8333333333333335, -0.16666666666666669, -0.33333333333333337, 0.0, 1.0, -0.5
*TRANSFORM, NSET=NB_4_0, TYPE=R
0.8333333333333335, -0.16666666666666669, 0.33333333333333337, 0.0, 1.0, 0.5
*TRANSFORM, NSET=NB_4_1, TYPE=R
0.8095238095238096, -0.09523809523809523, 0.38095238095238093, 0.0, 1.0, 0.25
*TRANSFORM, NSET=NB_4_2, TYPE=R
0.7999999999999999, 0.0, 0.3999999999999999, 0.0, 1.0, 0.0
*TRANSFORM, NSET=NB_4_3, TYPE=R
0.8095238095238096, 0.09523809523809523, 0.38095238095238093, 0.0, 1.0, -0.25
*TRANSFORM, NSET=NB_4_4, TYPE=R
0.8333333333333335, 0.16666666666666669, 0.33333333333333337, 0.0, 1.0, -0.5
*TRANSFORM, NSET=NB_1_0, TYPE=R
1.0, 0.0, -0.25, 0.09523809523809523, 0.8095238095238096, 0.38095238095238093
*TRANSFORM, NSET=NB_2_0, TYPE=R
1.0, 0.0, 0.0, 0.0, 0.7999999999999999, 0.3999999999999999
*TRANSFORM, NSET=NB_3_0, TYPE=R
1.0, 0.0, 0.25, -0.09523809523809523, 0.8095238095238096, 0.38095238095238093
*TRANSFORM, NSET=NB_1_4, TYPE=R
1.0, 0.0, -0.25, -0.09523809523809523, 0.8095238095238096, -0.38095238095238093
*TRANSFORM, NSET=NB_2_4, TYPE=R
1.0, 0.0, 0.0, 0.0, 0.7999999999999999, -0.3999999999999999
*TRANSFORM, NSET=NB_3_4, TYPE=R
1.0, 0.0, 0.25, 0.09523809523809523, 0.8095238095238096, -0.38095238095238093
*BOUNDARY, TYPE=DISPLACEMENT
Y0, 1, 1
*BOUNDARY, TYPE=DISPLACEMENT
Y1, 1, 1
*BOUNDARY, TYPE=DISPLACEMENT
X0, 2, 2
*BOUNDARY, TYPE=DISPLACEMENT
X1, 2, 2
*BOUNDARY, TYPE=DISPLACEMENT
X0, 3, 3
*BOUNDARY, TYPE=DISPLACEMENT
X1, 3, 3
*BOUNDARY, TYPE=DISPLACEMENT
Y0, 3, 3
*BOUNDARY, TYPE=DISPLACEMENT
Y1, 3, 3
*STEP
*FREQUENCY
10, 100, 100000
*END STEP
