*HEADING
Modelo de Casca Gerado Automaticamente
Sistema de Unidades: SI (m, kg, s)
*NODE, NSET=ALLNODES
1, 0.000000, 0.000000, 0.000000
2, 0.050000, 0.000000, 0.000000
3, 0.100000, 0.000000, 0.000000
4, 0.150000, 0.000000, 0.000000
5, 0.200000, 0.000000, 0.000000
6, 0.250000, 0.000000, 0.000000
7, 0.300000, 0.000000, 0.000000
8, 0.350000, 0.000000, 0.000000
9, 0.400000, 0.000000, 0.000000
10, 0.450000, 0.000000, 0.000000
11, 0.500000, 0.000000, 0.000000
12, 0.550000, 0.000000, 0.000000
13, 0.600000, 0.000000, 0.000000
14, 0.650000, 0.000000, 0.000000
15, 0.700000, 0.000000, 0.000000
16, 0.750000, 0.000000, 0.000000
17, 0.800000, 0.000000, 0.000000
18, 0.850000, 0.000000, 0.000000
19, 0.900000, 0.000000, 0.000000
20, 0.950000, 0.000000, 0.000000
** ... 2581 like lines cut
*ELEMENT, TYPE=S4, ELSET=ALLELEMENTS
1, 1, 2, 53, 52
2, 2, 3, 54, 53
3, 3, 4, 55, 54
4, 4, 5, 56, 55
5, 5, 6, 57, 56
6, 6, 7, 58, 57
7, 7, 8, 59, 58
8, 8, 9, 60, 59
9, 9, 10, 61, 60
10, 10, 11, 62, 61
11, 11, 12, 63, 62
12, 12, 13, 64, 63
13, 13, 14, 65, 64
14, 14, 15, 66, 65
15, 15, 16, 67, 66
16, 16, 17, 68, 67
17, 17, 18, 69, 68
18, 18, 19, 70, 69
19, 19, 20, 71, 70
20, 20, 21, 72, 71
** ... 2480 like lines cut
*MATERIAL, NAME=STEEL
*ELASTIC
27000000000.0, 0.2
*DENSITY
7800
*SHELL SECTION, ELSET=ALLELEMENTS, MATERIAL=STEEL, THICKNESS=0.15
*STEP
*STATIC
*END STEP
