*HEADING
Modelo de Casca Gerado Automaticamente
Sistema de Unidades: SI (m, kg, s)
*NODE, NSET=ALLNODES
1, 0.100000, 0.000000, 0.000000
2, 0.145000, 0.000000, 0.000000
3, 0.190000, 0.000000, 0.000002
4, 0.235000, 0.000000, 0.000009
5, 0.280000, 0.000000, 0.000038
6, 0.325000, 0.000000, 0.000124
7, 0.370000, 0.000000, 0.000351
8, 0.415000, 0.000000, 0.000880
9, 0.460000, 0.000000, 0.002005
10, 0.505000, 0.000000, 0.004230
11, 0.550000, 0.000000, 0.008373
12, 0.595000, 0.000000, 0.015709
13, 0.640000, 0.000000, 0.028147
14, 0.685000, 0.000000, 0.048476
15, 0.730000, 0.000000, 0.080646
16, 0.775000, 0.000000, 0.130141
17, 0.820000, 0.000000, 0.204414
18, 0.865000, 0.000000, 0.313422
19, 0.910000, 0.000000, 0.470253
20, 0.955000, 0.000000, 0.691874
** ... 4180 like lines cut
*ELEMENT, TYPE=S4, ELSET=ALLELEMENTS
1, 1, 2, 23, 22
2, 2, 3, 24, 23
3, 3, 4, 25, 24
4, 4, 5, 26, 25
5, 5, 6, 27, 26
6, 6, 7, 28, 27
7, 7, 8, 29, 28
8, 8, 9, 30, 29
9, 9, 10, 31, 30
10, 10, 11, 32, 31
11, 11, 12, 33, 32
12, 12, 13, 34, 33
13, 13, 14, 35, 34
14, 14, 15, 36, 35
15, 15, 16, 37, 36
16, 16, 17, 38, 37
17, 17, 18, 39, 38
18, 18, 19, 40, 39
19, 19, 20, 41, 40
20, 20, 21, 42, 41
** ... 3980 like lines cut
*MATERIAL, NAME=STEEL
*ELASTIC
210000000000.0, 0.3
*DENSITY
7800
*SHELL SECTION, ELSET=ALLELEMENTS, MATERIAL=STEEL, THICKNESS=0.01
*STEP
*STATIC
*END STEP
