*HEADING
Modelo de Casca Gerado Automaticamente
Sistema de Unidades: SI (m, kg, s)
*NODE, NSET=ALLNODES
1, 0.000000, 0.000000, 0.000000
2, 0.020000, 0.000000, 0.000400
3, 0.040000, 0.000000, 0.001600
4, 0.060000, 0.000000, 0.003600
5, 0.080000, 0.000000, 0.006400
6, 0.100000, 0.000000, 0.010000
7, 0.120000, 0.000000, 0.014400
8, 0.140000, 0.000000, 0.019600
9, 0.160000, 0.000000, 0.025600
10, 0.180000, 0.000000, 0.032400
11, 0.200000, 0.000000, 0.040000
12, 0.220000, 0.000000, 0.048400
13, 0.240000, 0.000000, 0.057600
14, 0.260000, 0.000000, 0.067600
15, 0.280000, 0.000000, 0.078400
16, 0.300000, 0.000000, 0.090000
17, 0.320000, 0.000000, 0.102400
18, 0.340000, 0.000000, 0.115600
19, 0.360000, 0.000000, 0.129600
20, 0.380000, 0.000000, 0.144400
** ... 2581 like lines cut
*ELEMENT, TYPE=S4, ELSET=ALLELEMENTS
1, 1, 2, 53, 52
2, 2, 3, 54, 53
3, 3, 4, 55, 54
4, 4, 5, 56, 55
5, 5, 6, 57, 56
6, 6, 7, 58, 57
7, 7, 8, 59, 58
8, 8, 9, 60, 59
9, 9, 10, 61, 60
10, 10, 11, 62, 61
11, 11, 12, 63, 62
12, 12, 13, 64, 63
13, 13, 14, 65, 64
14, 14, 15, 66, 65
15, 15, 16, 67, 66
16, 16, 17, 68, 67
17, 17, 18, 69, 68
18, 18, 19, 70, 69
19, 19, 20, 71, 70
20, 20, 21, 72, 71
** ... 2480 like lines cut
*MATERIAL, NAME=STEEL
*ELASTIC
210000000000.0, 0.3
*DENSITY
7800
*SHELL SECTION, ELSET=ALLELEMENTS, MATERIAL=STEEL, THICKNESS=0.01
*STEP
*STATIC
*END STEP
